Circuit: * C:\Users\natha\Documents\Everything\UWRT\Electrical\GIT\electric_boogaloo\TempestBoards\Acoustics\LTSpice\Acoustics System.asc

v1: Removing PWL point (0.257276,-0.269776)
v1: Removing PWL point (0.563916,-0.226441)
v1: Removing PWL point (0.8353,-0.270996)
v1: Removing PWL point (0.904064,-0.248108)
v1: Removing PWL point (1.04376,-0.290833)
v1: Removing PWL point (1.0937,-0.281067)
v1: Removing PWL point (1.67211,-0.231629)
v1: Removing PWL point (2.18315,-0.235596)
v1: Removing PWL point (3.0471,-0.290833)
v1: Removing PWL point (3.71184,-0.313416)
Direct Newton iteration failed to find .op point.  (Use ".option noopiter" to skip.)
Starting Gmin stepping
Gmin = 10
Gmin = 1.07374
Gmin = 0.115292
Gmin = 0.0123794
Gmin = 0.00132923
Gmin = 0.000142725
Gmin = 1.5325e-05
Gmin = 1.6455e-06
Gmin = 1.76685e-07
Gmin = 1.89714e-08
Gmin = 2.03704e-09
Gmin = 2.18725e-10
Gmin = 2.34854e-11
Gmin = 2.52173e-12
Gmin = 2.70769e-13
Gmin = 0
Gmin stepping succeeded in finding the operating point.


Date: Mon Nov 27 20:50:33 2023
Total elapsed time: 228.437 seconds.

tnom = 27
temp = 27
method = modified trap
totiter = 40622069
traniter = 40621681
tranpoints = 16262967
accept = 12569656
rejected = 3693311
matrix size = 29
fillins = 1
solver = Normal
Avg thread counts: 2.0/1.0/1.0/1.0
Matrix Compiler1: 1.02 KB object code size  0.3/0.2/[0.2]
Matrix Compiler2: 2.05 KB object code size  0.2/0.3/[0.2]

