Circuit: * C:\Users\natha\Documents\Everything\UWRT\Electrical\GIT\electric_boogaloo\TempestBoards\Acoustics\LTSpice\Acoustics System.asc

v1: Removing PWL point (0.007276,-0.269776)
v1: Removing PWL point (0.313916,-0.226441)
v1: Removing PWL point (0.5853,-0.270996)
v1: Removing PWL point (0.654064,-0.248108)
Direct Newton iteration failed to find .op point.  (Use ".option noopiter" to skip.)
Starting Gmin stepping
Gmin = 10
Gmin = 1.07374
Gmin = 0.115292
Gmin = 0.0123794
Gmin = 0.00132923
Gmin = 0.000142725
Gmin = 1.5325e-05
Gmin = 1.6455e-06
Gmin = 1.76685e-07
Gmin = 1.89714e-08
Gmin = 2.03704e-09
Gmin = 2.18725e-10
Gmin = 2.34854e-11
Gmin = 2.52173e-12
Gmin = 2.70769e-13
Gmin = 0
Gmin stepping succeeded in finding the operating point.


Date: Sun Dec  3 12:30:29 2023
Total elapsed time: 12.478 seconds.

tnom = 27
temp = 27
method = modified trap
totiter = 2753131
traniter = 2752746
tranpoints = 1041340
accept = 807170
rejected = 234170
matrix size = 29
fillins = 1
solver = Normal
Avg thread counts: 1.0/1.0/1.0/1.0
Matrix Compiler1: 1.02 KB object code size  0.3/0.2/[0.1]
Matrix Compiler2: 2.05 KB object code size  0.2/0.3/[0.2]

