Circuit: * C:\Users\natha\Documents\Everything\UWRT\Electrical\GIT\electric_boogaloo\TempestBoards\Acoustics\LTSpice\Draft2.asc

Direct Newton iteration failed to find .op point.  (Use ".option noopiter" to skip.)
Starting Gmin stepping
Gmin = 10
Gmin = 1.07374
Gmin = 0.115292
Gmin = 0.0123794
Gmin = 0.00132923
Gmin = 0.000142725
Gmin = 1.5325e-05
Gmin = 1.6455e-06
Gmin = 1.76685e-07
Gmin = 1.89714e-08
Gmin = 2.03704e-09
Gmin = 2.18725e-10
Gmin = 2.34854e-11
Gmin = 2.52173e-12
Gmin = 2.70769e-13
Gmin = 0
Gmin stepping succeeded in finding the operating point.


Date: Mon Nov 27 20:35:41 2023
Total elapsed time: 0.065 seconds.

tnom = 27
temp = 27
method = modified trap
totiter = 3142
traniter = 2757
tranpoints = 1233
accept = 1174
rejected = 59
matrix size = 11
fillins = 0
solver = Normal
Avg thread counts: 2.5/4.2/4.3/2.5
Matrix Compiler1: 486 bytes object code size  0.2/0.1/[0.1]
Matrix Compiler2: 825 bytes object code size  0.1/0.1/[0.1]

