Circuit: * C:\Users\natha\Documents\Everything\UWRT\Electrical\GIT\electric_boogaloo\TempestBoards\Acoustics\LTSpice\Acoustics System (Testing).asc

v1: Removing PWL point (0.007276,-0.269776)
v1: Removing PWL point (0.313916,-0.226441)
v1: Removing PWL point (0.5853,-0.270996)
v1: Removing PWL point (0.654064,-0.248108)
Direct Newton iteration failed to find .op point.  (Use ".option noopiter" to skip.)
Starting Gmin stepping
Increasing initial diagonal Gmin to 100
Increasing initial diagonal Gmin to 1000
Gmin = 1000
Gmin = 107.374
Gmin = 11.5292
Gmin = 1.23794
Gmin = 0.132923
Gmin = 0.0142725
Gmin = 0.0015325
Gmin = 0.00016455
Gmin = 1.76685e-05
Gmin = 1.89714e-06
Gmin = 2.03704e-07
Gmin = 2.18725e-08
Gmin = 2.34854e-09
Gmin = 2.52173e-10
Gmin = 2.70769e-11
Gmin = 2.90735e-12
Gmin = 3.12175e-13
Gmin = 0
Gmin stepping succeeded in finding the operating point.


Date: Sun Jan 14 13:27:07 2024
Total elapsed time: 25.269 seconds.

tnom = 27
temp = 27
method = modified trap
totiter = 4419950
traniter = 4419244
tranpoints = 1632738
accept = 1267079
rejected = 365659
matrix size = 37
fillins = 4
solver = Normal
Avg thread counts: 1.0/1.0/1.0/1.0
Matrix Compiler1: 1.43 KB object code size  0.6/0.4/[0.2]
Matrix Compiler2: 2.85 KB object code size  0.3/0.4/[0.2]

