Circuit: * AD633J Analog Multiplier Macro Model

Fatal Error: No analysis request found.
