Circuit: * C:\Users\natha\Documents\Everything\UWRT\Electrical\GIT\electric_boogaloo\TempestBoards\Acoustics\LTSpice\thresholdDetector.asc

WARNING: Less than two connections to node n002.  This node is used by a:u1:1.
Direct Newton iteration for .op point succeeded.

Date: Mon Nov 27 20:07:26 2023
Total elapsed time: 0.070 seconds.

tnom = 27
temp = 27
method = modified trap
totiter = 16033
traniter = 16030
tranpoints = 8016
accept = 4818
rejected = 3198
matrix size = 10
fillins = 0
solver = Normal
Avg thread counts: 1.3/1.5/1.5/1.3
Matrix Compiler1: 382 bytes object code size  0.2/0.1/[0.1]
Matrix Compiler2: 636 bytes object code size  0.1/0.2/[0.1]

