Circuit: * C:\Users\natha\Documents\Everything\UWRT\Electrical\GIT\electric_boogaloo\TalosBoards\Year Two\Acoustics\LTSpice\Acoustics System.asc

v1: Removing PWL point (-0.00934,0.0048)
v1: Removing PWL point (-0.00898,0.0056)
v1: Removing PWL point (-0.00862,-0.0008)
v1: Removing PWL point (-0.00856,0.0008)
v1: Removing PWL point (-0.00762,0.0024)
v1: Removing PWL point (-0.00712,0.0056)
v1: Removing PWL point (-0.0065,0.0064)
v1: Removing PWL point (-0.00584,0.004)
v1: Removing PWL point (-0.00576,0.004)
v1: Removing PWL point (-0.00562,0.0024)
v1: Removing PWL point (-0.00498,0.004)
v1: Removing PWL point (-0.00476,0.004)
v1: Removing PWL point (-0.00424,0.0024)
v1: Removing PWL point (-0.0037,0.0008)
v1: Removing PWL point (-0.00334,0.0032)
v1: Removing PWL point (-0.0031,0.004)
v1: Removing PWL point (-0.00294,0.0024)
v1: Removing PWL point (-0.00252,0.004)
v1: Removing PWL point (-0.0023,0.004)
v1: Removing PWL point (-0.00222,0.004)
v1: Removing PWL point (-0.00076,0.0032)
Direct Newton iteration failed to find .op point.  (Use ".option noopiter" to skip.)
Starting Gmin stepping
Increasing initial diagonal Gmin to 100
Increasing initial diagonal Gmin to 1000
Gmin = 1000
Gmin = 107.374
Gmin = 11.5292
Gmin = 1.23794
Gmin = 0.132923
Gmin = 0.0142725
Gmin = 0.0015325
Gmin = 0.00016455
Gmin = 1.76685e-05
Gmin = 1.89714e-06
Gmin = 2.03704e-07
Gmin = 2.18725e-08
Gmin = 2.34854e-09
Gmin = 2.52173e-10
Gmin = 2.70769e-11
Gmin = 2.90735e-12
Gmin = 3.12175e-13
Gmin = 0
Gmin stepping succeeded in finding the operating point.


Date: Thu Oct 24 19:16:33 2024
Total elapsed time: 14.574 seconds.

tnom = 27
temp = 27
method = modified trap
totiter = 1752186
traniter = 1751480
tranpoints = 818097
accept = 510052
rejected = 308045
matrix size = 37
fillins = 5
solver = Normal
Avg thread counts: 3.0/1.0/1.0/1.0
Matrix Compiler1: 1.48 KB object code size  0.5/0.3/[0.2]
Matrix Compiler2: 2.85 KB object code size  0.3/0.4/[0.3]

