Circuit: * C:\Users\natha\Documents\Everything\UWRT\Electrical\GIT\electric_boogaloo\TempestBoards\Acoustics\LTSpice\AFE_bandpass_v3.asc

v3: Removing PWL point (0.007276,-0.269776)
v3: Removing PWL point (0.313916,-0.226441)
v3: Removing PWL point (0.5853,-0.270996)
v3: Removing PWL point (0.654064,-0.248108)
Direct Newton iteration for .op point succeeded.

Date: Mon Dec  4 19:28:49 2023
Total elapsed time: 2.445 seconds.

tnom = 27
temp = 27
method = modified trap
totiter = 868052
traniter = 868025
tranpoints = 379633
accept = 352142
rejected = 27491
matrix size = 10
fillins = 1
solver = Normal
Avg thread counts: 1.0/1.0/1.0/1.0
Matrix Compiler1: 454 bytes object code size  0.2/0.1/[0.1]
Matrix Compiler2: 850 bytes object code size  0.1/0.1/[0.1]

