LTspice 24.0.12 for Windows
Circuit: * C:\Users\julmp\Documents\electric_boogaloo\TalosBoards\Year Two\Acoustics\LTSpice\Draft2.asc
Start Time: Sun Apr 27 10:18:32 2025
solver = Normal
Maximum thread count: 8
tnom = 27
temp = 27
method = modified trap
Direct Newton iteration for .op point succeeded.
Total elapsed time: 0.073 seconds.

