LTspice 24.0.12 for Windows
Circuit: * C:\Users\julmp\Documents\electric_boogaloo\TalosBoards\Year Two\Acoustics\LTSpice\Draft1.asc
Start Time: Sat Apr 26 23:19:33 2025
c2: both pins shorted together -- ignoring.
solver = Normal
Maximum thread count: 8
tnom = 27
temp = 27
method = modified trap
WARNING: Node NC_02 is floating.

WARNING: Less than two connections to node nc_01.  This node is used by r2.
WARNING: Less than two connections to node nc_02.  This node is used by r2.
Direct Newton iteration for .op point succeeded.
Fatal Error: Analysis Failed: Matrix is singular
