Circuit: * C:\Users\natha\Documents\Everything\UWRT\Electrical\GIT\electric_boogaloo\TalosBoards\Year Two\Acoustics\LTSpice\Draft3.asc

v1: Removing PWL point (-0.0594,0.004)
v1: Removing PWL point (-0.0485,0.0032)
v1: Removing PWL point (-0.0096,0.0056)
v1: Removing PWL point (-0.00884,0.0024)
v1: Removing PWL point (-0.0012,0.004)
v1: Removing PWL point (0.00272,0.004)
v1: Removing PWL point (0.00584,0.0008)
v1: Removing PWL point (0.00956,0.0016)
v1: Removing PWL point (0.0722,0.004)
v2: Removing PWL point (-8.67e-05,0.0024)
v2: Removing PWL point (-4.98e-05,0.0024)
v2: Removing PWL point (-4.64e-05,0.0024)
v2: Removing PWL point (-4.44e-05,0.0024)
v2: Removing PWL point (-3.95e-05,0.0032)
v2: Removing PWL point (-3.59e-05,0.0032)
v2: Removing PWL point (-2.1e-05,0.0048)
v2: Removing PWL point (-1.88e-05,0.0008)
v2: Removing PWL point (-1.41e-05,0.0032)
v2: Removing PWL point (-9.84e-06,0.0024)
v2: Removing PWL point (-9.56e-06,0.0024)
v2: Removing PWL point (-9.32e-06,0.0024)
v2: Removing PWL point (-8.8e-06,0.0024)
v2: Removing PWL point (-8.04e-06,0.0024)
v2: Removing PWL point (-7.32e-06,0.0024)
v2: Removing PWL point (-7.16e-06,0.0024)
v2: Removing PWL point (-6.68e-06,0.0024)
v2: Removing PWL point (-6.4e-06,0.0016)
v2: Removing PWL point (-5.92e-06,0.0032)
v2: Removing PWL point (-4.8e-06,0.0032)
v2: Removing PWL point (-4.64e-06,0.004)
v2: Removing PWL point (-4.2e-06,0.0032)
v2: Removing PWL point (-3.64e-06,0.004)
v2: Removing PWL point (-3.52e-06,0.0032)
v2: Removing PWL point (-3.12e-06,0.0008)
v2: Removing PWL point (-2.92e-06,0.0024)
v2: Removing PWL point (-1.88e-06,-0.0024)
v2: Removing PWL point (0,0.0152)
v2: Removing PWL point (1.64e-06,-0.0008)
v2: Removing PWL point (1.92e-06,-0.0008)
v2: Removing PWL point (2.08e-06,-0.0008)
v2: Removing PWL point (2.24e-06,-0.0008)
v2: Removing PWL point (2.52e-06,0.0008)
v2: Removing PWL point (3.44e-06,0.0008)
v2: Removing PWL point (5.28e-06,0.0008)
v2: Removing PWL point (5.64e-06,0.0024)
v2: Removing PWL point (5.84e-06,0.0032)
v2: Removing PWL point (6.16e-06,0.0024)
v2: Removing PWL point (7.72e-06,0.0064)
v2: Removing PWL point (8e-06,0.0056)
v2: Removing PWL point (8.6e-06,0.004)
v2: Removing PWL point (9.12e-06,0.0032)
v2: Removing PWL point (1.032e-05,0.0024)
v2: Removing PWL point (1.092e-05,0.0024)
v2: Removing PWL point (1.108e-05,0.0024)
v2: Removing PWL point (1.14e-05,0.0024)
v2: Removing PWL point (1.16e-05,0.0032)
v2: Removing PWL point (1.172e-05,0.004)
v2: Removing PWL point (1.22e-05,0.004)
v2: Removing PWL point (1.264e-05,0.004)
v2: Removing PWL point (1.312e-05,0.004)
v2: Removing PWL point (1.436e-05,0.004)
v2: Removing PWL point (1.528e-05,0.004)
v2: Removing PWL point (1.556e-05,0.004)
v2: Removing PWL point (1.592e-05,0.004)
v2: Removing PWL point (1.652e-05,0.004)
v2: Removing PWL point (1.676e-05,0.004)
v2: Removing PWL point (1.7e-05,0.004)
v2: Removing PWL point (1.724e-05,0.0024)
v2: Removing PWL point (1.868e-05,0.0024)
v2: Removing PWL point (1.9e-05,0.0024)
v2: Removing PWL point (1.976e-05,0.004)
v2: Removing PWL point (1.988e-05,0.0024)
v2: Removing PWL point (2.024e-05,0.004)
v2: Removing PWL point (2.044e-05,0.004)
v2: Removing PWL point (2.064e-05,0.0032)
v2: Removing PWL point (2.088e-05,0.004)
v2: Removing PWL point (2.104e-05,0.004)
v2: Removing PWL point (2.212e-05,0.0024)
v2: Removing PWL point (2.256e-05,0.004)
v2: Removing PWL point (2.268e-05,0.0032)
v2: Removing PWL point (2.296e-05,0.0032)
v2: Removing PWL point (2.312e-05,0.0024)
v2: Removing PWL point (2.332e-05,0.0032)
v2: Removing PWL point (2.36e-05,0.0024)
v2: Removing PWL point (2.388e-05,0.0024)
v2: Removing PWL point (2.408e-05,0.0032)
v2: Removing PWL point (2.46e-05,0.0032)
v2: Removing PWL point (2.48e-05,0.004)
v2: Removing PWL point (2.504e-05,0.0032)
v2: Removing PWL point (2.524e-05,0.0024)
v2: Removing PWL point (2.548e-05,0.0032)
v2: Removing PWL point (2.576e-05,0.0032)
v2: Removing PWL point (2.592e-05,0.0032)
v2: Removing PWL point (2.668e-05,0.004)
v2: Removing PWL point (2.68e-05,0.0024)
v2: Removing PWL point (2.72e-05,0.004)
v2: Removing PWL point (2.768e-05,0.0032)
v2: Removing PWL point (2.8e-05,0.004)
v2: Removing PWL point (2.82e-05,0.004)
v2: Removing PWL point (2.86e-05,0.0032)
v2: Removing PWL point (2.872e-05,0.004)
v2: Removing PWL point (2.892e-05,0.004)
v2: Removing PWL point (2.916e-05,0.004)
v2: Removing PWL point (3.02e-05,0.0048)
v2: Removing PWL point (3.068e-05,0.0048)
v2: Removing PWL point (3.084e-05,0.004)
v2: Removing PWL point (3.132e-05,0.0032)
v2: Removing PWL point (3.168e-05,0.004)
v2: Removing PWL point (3.204e-05,0.0032)
v2: Removing PWL point (3.224e-05,0.0024)
v2: Removing PWL point (3.28e-05,0.0024)
v2: Removing PWL point (3.424e-05,0.0024)
v2: Removing PWL point (3.512e-05,0.004)
v2: Removing PWL point (3.64e-05,0.004)
v2: Removing PWL point (3.652e-05,0.0032)
v2: Removing PWL point (3.704e-05,0.004)
v2: Removing PWL point (3.736e-05,0.0032)
v2: Removing PWL point (3.824e-05,0.0032)
v2: Removing PWL point (3.844e-05,0.0032)
v2: Removing PWL point (4.08e-05,0.004)
v2: Removing PWL point (4.124e-05,0.0032)
v2: Removing PWL point (4.14e-05,0.0032)
v2: Removing PWL point (4.188e-05,0.0032)
v2: Removing PWL point (4.208e-05,0.0024)
v2: Removing PWL point (4.324e-05,0.0024)
v2: Removing PWL point (4.46e-05,0.004)
v2: Removing PWL point (4.476e-05,0.004)
v2: Removing PWL point (4.504e-05,0.004)
v2: Removing PWL point (4.524e-05,0.004)
v2: Removing PWL point (4.592e-05,0.004)
v2: Removing PWL point (4.632e-05,0.004)
v2: Removing PWL point (4.652e-05,0.004)
v2: Removing PWL point (4.676e-05,0.0032)
v2: Removing PWL point (4.832e-05,0.0032)
v2: Removing PWL point (4.848e-05,0.0016)
v2: Removing PWL point (4.952e-05,0.0032)
v2: Removing PWL point (4.976e-05,0.0032)
v2: Removing PWL point (5e-05,0.004)
v2: Removing PWL point (5.024e-05,0.0032)
v2: Removing PWL point (5.092e-05,0.004)
v2: Removing PWL point (5.108e-05,0.004)
v2: Removing PWL point (5.144e-05,0.0048)
v2: Removing PWL point (5.18e-05,0.004)
v2: Removing PWL point (5.236e-05,0.004)
v2: Removing PWL point (5.28e-05,0.004)
v2: Removing PWL point (5.296e-05,0.0048)
v2: Removing PWL point (5.308e-05,0.004)
v2: Removing PWL point (5.332e-05,0.0032)
v2: Removing PWL point (5.344e-05,0.004)
v2: Removing PWL point (5.36e-05,0.004)
v2: Removing PWL point (5.384e-05,0.004)
v2: Removing PWL point (5.404e-05,0.004)
v2: Removing PWL point (5.492e-05,0.0048)
v2: Removing PWL point (5.54e-05,0.004)
v2: Removing PWL point (5.552e-05,0.0048)
v2: Removing PWL point (5.616e-05,0.0048)
v2: Removing PWL point (5.64e-05,0.0056)
v2: Removing PWL point (5.664e-05,0.0048)
v2: Removing PWL point (5.684e-05,0.004)
v2: Removing PWL point (5.716e-05,0.004)
v2: Removing PWL point (5.744e-05,0.004)
v2: Removing PWL point (5.768e-05,0.004)
v2: Removing PWL point (5.784e-05,0.0048)
v2: Removing PWL point (5.848e-05,0.004)
v2: Removing PWL point (5.892e-05,0.0024)
v2: Removing PWL point (5.98e-05,0.0024)
v2: Removing PWL point (6.004e-05,0.0016)
v2: Removing PWL point (6.08e-05,0.0024)
v2: Removing PWL point (6.1e-05,0.0024)
v2: Removing PWL point (6.128e-05,0.0032)
v2: Removing PWL point (6.2e-05,0.0032)
v2: Removing PWL point (6.216e-05,0.004)
v2: Removing PWL point (6.324e-05,0.0024)
v2: Removing PWL point (6.42e-05,0.0032)
v2: Removing PWL point (6.456e-05,0.0032)
v2: Removing PWL point (6.488e-05,0.0024)
v2: Removing PWL point (6.548e-05,0.004)
v2: Removing PWL point (6.58e-05,0.004)
v2: Removing PWL point (6.616e-05,0.004)
v2: Removing PWL point (6.644e-05,0.004)
v2: Removing PWL point (6.672e-05,0.004)
v2: Removing PWL point (6.748e-05,0.004)
v2: Removing PWL point (6.812e-05,0.004)
v2: Removing PWL point (6.864e-05,0.004)
v2: Removing PWL point (6.964e-05,0.004)
v2: Removing PWL point (6.984e-05,0.004)
v2: Removing PWL point (7.056e-05,0.004)
v2: Removing PWL point (7.172e-05,0.004)
v2: Removing PWL point (7.22e-05,0.004)
v2: Removing PWL point (7.296e-05,0.004)
v2: Removing PWL point (7.32e-05,0.0032)
v2: Removing PWL point (7.364e-05,0.0032)
v2: Removing PWL point (7.376e-05,0.004)
v2: Removing PWL point (7.416e-05,0.004)
v2: Removing PWL point (7.428e-05,0.0032)
v2: Removing PWL point (7.468e-05,0.0032)
v2: Removing PWL point (7.536e-05,0.0024)
v2: Removing PWL point (7.56e-05,0.0024)
v2: Removing PWL point (7.588e-05,0.0024)
v2: Removing PWL point (7.776e-05,0.0032)
v2: Removing PWL point (7.796e-05,0.004)
v2: Removing PWL point (7.812e-05,0.0032)
v2: Removing PWL point (7.872e-05,0.004)
v2: Removing PWL point (7.924e-05,0.0032)
v2: Removing PWL point (8.028e-05,0.004)
v2: Removing PWL point (8.116e-05,0.004)
v2: Removing PWL point (8.144e-05,0.0032)
v2: Removing PWL point (8.188e-05,0.004)
v2: Removing PWL point (8.2e-05,0.0032)
v2: Removing PWL point (8.232e-05,0.004)
v2: Removing PWL point (8.248e-05,0.004)
v2: Removing PWL point (8.372e-05,0.0032)
v2: Removing PWL point (8.42e-05,0.0032)
v2: Removing PWL point (8.456e-05,0.0024)
v2: Removing PWL point (8.48e-05,0.0024)
v2: Removing PWL point (8.516e-05,0.0024)
v2: Removing PWL point (8.548e-05,0.0032)
v2: Removing PWL point (8.668e-05,0.004)
v2: Removing PWL point (9.144e-05,-0.0016)
v2: Removing PWL point (9.156e-05,-0.0032)
v2: Removing PWL point (9.192e-05,-0.0048)
v2: Removing PWL point (9.212e-05,-0.0016)
v2: Removing PWL point (9.352e-05,0.016)
v2: Removing PWL point (9.384e-05,0.0168)
v2: Removing PWL point (9.46e-05,0.0072)
v2: Removing PWL point (9.516e-05,-0.0016)
v2: Removing PWL point (9.576e-05,-0.004)
v2: Removing PWL point (9.62e-05,-0.0032)
v2: Removing PWL point (9.644e-05,-0.0016)
v2: Removing PWL point (9.672e-05,-0.0008)
v2: Removing PWL point (9.692e-05,0.0008)
v2: Removing PWL point (9.72e-05,0.0008)
v2: Removing PWL point (9.748e-05,0.0024)
v2: Removing PWL point (9.768e-05,0.0024)
v2: Removing PWL point (9.8e-05,0.0032)
v2: Removing PWL point (9.82e-05,0.0032)
v2: Removing PWL point (9.836e-05,0.004)
v2: Removing PWL point (9.852e-05,0.0032)
v2: Removing PWL point (9.872e-05,0.004)
v2: Removing PWL point (9.888e-05,0.0048)
v2: Removing PWL point (9.9e-05,0.004)
v2: Removing PWL point (9.94e-05,0.004)
v2: Removing PWL point (9.964e-05,0.0048)
v2: Removing PWL point (9.98e-05,0.0056)
v2: Removing PWL point (9.996e-05,0.0064)
v2: Removing PWL point (0.00010028,0.0056)
v2: Removing PWL point (0.0001008,0.0072)
v2: Removing PWL point (0.00010096,0.0072)
v2: Removing PWL point (0.00010124,0.0072)
v2: Removing PWL point (0.0001018,0.0072)
v2: Removing PWL point (0.0001024,0.0032)
v2: Removing PWL point (0.00010296,0.0032)
v2: Removing PWL point (0.00010324,0.0024)
v2: Removing PWL point (0.00010344,0.0008)
v2: Removing PWL point (0.00010388,0.0024)
v2: Removing PWL point (0.00010408,0.0024)
v2: Removing PWL point (0.00010508,0.0032)
v2: Removing PWL point (0.00010548,0.004)
v2: Removing PWL point (0.00010572,0.0056)
v2: Removing PWL point (0.00010616,0.0056)
v2: Removing PWL point (0.00010704,0.0048)
v2: Removing PWL point (0.00010776,0.004)
v2: Removing PWL point (0.00010824,0.004)
v2: Removing PWL point (0.0001086,0.004)
v2: Removing PWL point (0.00010972,0.0032)
v2: Removing PWL point (0.00010996,0.0024)
v2: Removing PWL point (0.00011044,0.0032)
v2: Removing PWL point (0.00011112,0.004)
v2: Removing PWL point (0.00011128,0.004)
v2: Removing PWL point (0.00011144,0.0032)
v2: Removing PWL point (0.00011184,0.004)
v2: Removing PWL point (0.0001126,0.0048)
v2: Removing PWL point (0.00011384,0.0032)
v2: Removing PWL point (0.0001144,0.0024)
v2: Removing PWL point (0.0001146,0.0024)
v2: Removing PWL point (0.00011592,0.0008)
v2: Removing PWL point (0.00011684,0.0024)
v2: Removing PWL point (0.00011696,0.004)
v2: Removing PWL point (0.00011764,0.004)
v2: Removing PWL point (0.00011788,0.004)
v2: Removing PWL point (0.00011824,0.0032)
v2: Removing PWL point (0.00011896,0.0048)
v2: Removing PWL point (0.00011936,0.0056)
v2: Removing PWL point (0.0001198,0.0048)
v2: Removing PWL point (0.00012044,0.0056)
v2: Removing PWL point (0.00012128,0.0056)
v2: Removing PWL point (0.0001214,0.0048)
v2: Removing PWL point (0.00012192,0.0064)
v2: Removing PWL point (0.0001224,0.004)
v2: Removing PWL point (0.000125,0.004)
v2: Removing PWL point (0.00012592,0.0032)
v2: Removing PWL point (0.00012616,0.004)
v2: Removing PWL point (0.0001268,0.0024)
v2: Removing PWL point (0.00012696,0.0024)
v2: Removing PWL point (0.00012712,0.0024)
v2: Removing PWL point (0.00012748,0.0024)
v2: Removing PWL point (0.0001278,0.0024)
v2: Removing PWL point (0.00012828,0.004)
v2: Removing PWL point (0.00012876,0.0032)
v2: Removing PWL point (0.00012888,0.004)
v2: Removing PWL point (0.00013056,0.004)
v2: Removing PWL point (0.00013176,0.0024)
v2: Removing PWL point (0.00013204,0.004)
v2: Removing PWL point (0.00013244,0.0024)
v2: Removing PWL point (0.00013288,0.0032)
v2: Removing PWL point (0.0001338,0.004)
v2: Removing PWL point (0.0001346,0.0056)
v2: Removing PWL point (0.00013492,0.004)
v2: Removing PWL point (0.00013508,0.0064)
v2: Removing PWL point (0.0001354,0.0056)
v2: Removing PWL point (0.00013604,0.0048)
v2: Removing PWL point (0.00013624,0.0056)
v2: Removing PWL point (0.00013684,0.0056)
v2: Removing PWL point (0.00013704,0.0056)
v2: Removing PWL point (0.00013724,0.004)
v2: Removing PWL point (0.00014044,0.004)
v2: Removing PWL point (0.000141,0.004)
v2: Removing PWL point (0.0001412,0.004)
v2: Removing PWL point (0.00014156,0.004)
v2: Removing PWL point (0.00014188,0.004)
v2: Removing PWL point (0.00014272,0.0032)
v2: Removing PWL point (0.00014292,0.004)
v2: Removing PWL point (0.00014372,0.004)
v2: Removing PWL point (0.00014392,0.004)
v2: Removing PWL point (0.00014416,0.004)
v2: Removing PWL point (0.00014452,0.0032)
v2: Removing PWL point (0.00014484,0.004)
v2: Removing PWL point (0.00014536,0.004)
v2: Removing PWL point (0.00014576,0.004)
v2: Removing PWL point (0.00014672,0.004)
v2: Removing PWL point (0.0001474,0.004)
v2: Removing PWL point (0.00014796,0.0032)
v2: Removing PWL point (0.00014896,0.0024)
v2: Removing PWL point (0.00015024,0.0032)
v2: Removing PWL point (0.00015072,0.0032)
v2: Removing PWL point (0.00015092,0.0032)
v2: Removing PWL point (0.00015112,0.0024)
v2: Removing PWL point (0.00015124,0.004)
v2: Removing PWL point (0.0001518,0.0032)
v2: Removing PWL point (0.00015212,0.0032)
v2: Removing PWL point (0.00015272,0.0032)
v2: Removing PWL point (0.00015296,0.004)
v2: Removing PWL point (0.00015332,0.0024)
v2: Removing PWL point (0.00015448,0.0032)
v2: Removing PWL point (0.00015548,0.0032)
v2: Removing PWL point (0.00015568,0.0032)
v2: Removing PWL point (0.00015636,0.0032)
v2: Removing PWL point (0.00015668,0.004)
v2: Removing PWL point (0.0001568,0.0032)
v2: Removing PWL point (0.00015692,0.004)
v2: Removing PWL point (0.00015704,0.0032)
v2: Removing PWL point (0.00015732,0.004)
v2: Removing PWL point (0.00015748,0.004)
v2: Removing PWL point (0.00015772,0.004)
v2: Removing PWL point (0.00015792,0.0024)
v2: Removing PWL point (0.00015824,0.004)
v2: Removing PWL point (0.00015856,0.004)
v2: Removing PWL point (0.00015936,0.004)
v2: Removing PWL point (0.00015976,0.004)
v2: Removing PWL point (0.00015988,0.0056)
v2: Removing PWL point (0.00016088,0.012)
v2: Removing PWL point (0.00016128,0.0088)
v2: Removing PWL point (0.0001614,0.0064)
v2: Removing PWL point (0.00016176,0.0024)
v2: Removing PWL point (0.00016216,-0.0048)
v2: Removing PWL point (0.00016264,-0.0072)
v2: Removing PWL point (0.00016312,-0.0048)
v2: Removing PWL point (0.00016324,-0.0016)
v2: Removing PWL point (0.000164,0.0064)
v2: Removing PWL point (0.00016448,0.008)
v2: Removing PWL point (0.0001646,0.0088)
v2: Removing PWL point (0.00016476,0.0088)
v2: Removing PWL point (0.00016492,0.0088)
v2: Removing PWL point (0.00016556,0.0088)
v2: Removing PWL point (0.00016604,0.008)
v2: Removing PWL point (0.0001662,0.0088)
v2: Removing PWL point (0.00016712,0.004)
v2: Removing PWL point (0.00016752,0.004)
v2: Removing PWL point (0.00016776,0.0024)
v2: Removing PWL point (0.00016804,0.004)
v2: Removing PWL point (0.00016852,0.0032)
v2: Removing PWL point (0.00016892,0.0024)
v2: Removing PWL point (0.00016924,0.0024)
v2: Removing PWL point (0.00016944,0.0024)
v2: Removing PWL point (0.00016996,0.0024)
v2: Removing PWL point (0.0001704,0.0016)
v2: Removing PWL point (0.00017072,0.0024)
v2: Removing PWL point (0.00017124,0.0032)
v2: Removing PWL point (0.00017208,0.004)
v2: Removing PWL point (0.0001724,0.004)
v2: Removing PWL point (0.00017252,0.0048)
v2: Removing PWL point (0.00017264,0.004)
v2: Removing PWL point (0.00017452,0.0024)
v2: Removing PWL point (0.00017492,-0.0008)
v2: Removing PWL point (0.00017636,0.004)
v2: Removing PWL point (0.00017724,0.004)
v2: Removing PWL point (0.0001774,0.004)
v2: Removing PWL point (0.00017772,0.004)
v2: Removing PWL point (0.00017832,0.004)
v2: Removing PWL point (0.0001788,0.004)
v2: Removing PWL point (0.00018008,0.004)
v2: Removing PWL point (0.00018056,0.004)
v2: Removing PWL point (0.00018076,0.004)
v2: Removing PWL point (0.00018144,0.004)
v2: Removing PWL point (0.0001816,0.004)
v2: Removing PWL point (0.00018184,0.004)
v2: Removing PWL point (0.000182,0.004)
v2: Removing PWL point (0.00018276,0.004)
v2: Removing PWL point (0.00018324,0.004)
v2: Removing PWL point (0.00018336,0.0056)
v2: Removing PWL point (0.00018392,0.004)
v2: Removing PWL point (0.0001842,0.004)
v2: Removing PWL point (0.00018488,0.004)
v2: Removing PWL point (0.00018604,0.004)
v2: Removing PWL point (0.00018656,0.0032)
v2: Removing PWL point (0.00018684,0.0032)
v2: Removing PWL point (0.0001872,0.0032)
v2: Removing PWL point (0.0001874,0.0024)
v2: Removing PWL point (0.00018824,0.0024)
v2: Removing PWL point (0.0001888,0.0032)
v2: Removing PWL point (0.00018952,0.0024)
v2: Removing PWL point (0.0001898,0.0024)
v2: Removing PWL point (0.00019,0.0032)
v2: Removing PWL point (0.00019052,0.004)
v2: Removing PWL point (0.00019076,0.0032)
v2: Removing PWL point (0.00019096,0.004)
v2: Removing PWL point (0.00019144,0.004)
v2: Removing PWL point (0.00019208,0.004)
v2: Removing PWL point (0.0001922,0.0032)
v2: Removing PWL point (0.00019252,0.004)
v2: Removing PWL point (0.00019268,0.0032)
v2: Removing PWL point (0.00019296,0.0032)
v2: Removing PWL point (0.00019316,0.0032)
v2: Removing PWL point (0.00019336,0.0024)
v2: Removing PWL point (0.00019356,0.0032)
v2: Removing PWL point (0.00019396,0.0032)
v2: Removing PWL point (0.00019436,0.0024)
v2: Removing PWL point (0.00019544,0.0024)
v2: Removing PWL point (0.0001958,0.0024)
v2: Removing PWL point (0.000196,0.0032)
v2: Removing PWL point (0.0001962,0.0032)
v2: Removing PWL point (0.000197,0.0024)
v2: Removing PWL point (0.00019724,0.0024)
v2: Removing PWL point (0.00019736,0.0032)
v2: Removing PWL point (0.0001976,0.0032)
v2: Removing PWL point (0.00019772,0.0024)
v2: Removing PWL point (0.00019784,0.0032)
v2: Removing PWL point (0.00019796,0.004)
v2: Removing PWL point (0.00019832,0.0032)
v2: Removing PWL point (0.00019848,0.0032)
v2: Removing PWL point (0.0001988,0.0032)
v2: Removing PWL point (0.00019904,0.0032)
v2: Removing PWL point (0.00019944,0.0032)
v2: Removing PWL point (0.00019976,0.004)
v2: Removing PWL point (0.0002004,0.004)
v2: Removing PWL point (0.00020072,0.004)
v2: Removing PWL point (0.0002012,0.004)
v2: Removing PWL point (0.00020168,0.004)
v2: Removing PWL point (0.00020204,0.0048)
v2: Removing PWL point (0.00020288,0.0048)
v2: Removing PWL point (0.000203,0.004)
v2: Removing PWL point (0.00020312,0.0048)
v2: Removing PWL point (0.00020324,0.004)
v2: Removing PWL point (0.00020408,0.004)
v2: Removing PWL point (0.00020532,0.0024)
v2: Removing PWL point (0.0002056,0.0008)
v2: Removing PWL point (0.00020576,0.0016)
v2: Removing PWL point (0.0002062,0.0024)
v2: Removing PWL point (0.00020676,0.0032)
v2: Removing PWL point (0.00020704,0.0032)
v2: Removing PWL point (0.00020764,0.0024)
v2: Removing PWL point (0.00020796,0.0024)
v2: Removing PWL point (0.00020904,0.0032)
v2: Removing PWL point (0.00020928,0.0032)
v2: Removing PWL point (0.00021096,0.0032)
v2: Removing PWL point (0.00021112,0.004)
v2: Removing PWL point (0.00021144,0.004)
v2: Removing PWL point (0.00021176,0.004)
v2: Removing PWL point (0.00021192,0.0032)
v2: Removing PWL point (0.00021228,0.0024)
v2: Removing PWL point (0.0002128,0.0032)
v2: Removing PWL point (0.00021328,0.0024)
v2: Removing PWL point (0.00021372,0.0032)
v2: Removing PWL point (0.00021404,0.0024)
v2: Removing PWL point (0.00021516,0.0024)
v2: Removing PWL point (0.00021552,0.0024)
v2: Removing PWL point (0.00021564,0.0016)
v2: Removing PWL point (0.00021688,0.0024)
v2: Removing PWL point (0.0002172,0.004)
v2: Removing PWL point (0.00021776,0.004)
v2: Removing PWL point (0.00021808,0.004)
v2: Removing PWL point (0.0002184,0.004)
v2: Removing PWL point (0.0002186,0.004)
v2: Removing PWL point (0.00021896,0.004)
v2: Removing PWL point (0.0002192,0.004)
v2: Removing PWL point (0.00021976,0.004)
v2: Removing PWL point (0.00022072,0.004)
v2: Removing PWL point (0.00022088,0.004)
v2: Removing PWL point (0.0002218,0.0048)
v2: Removing PWL point (0.0002222,0.004)
v2: Removing PWL point (0.00022252,0.004)
v2: Removing PWL point (0.00022416,0.0024)
v2: Removing PWL point (0.00022428,0.0032)
v2: Removing PWL point (0.00022468,0.0032)
v2: Removing PWL point (0.00022612,0.0032)
v2: Removing PWL point (0.00022676,0.004)
v2: Removing PWL point (0.00022692,0.004)
v2: Removing PWL point (0.0002276,0.004)
v2: Removing PWL point (0.00022796,0.0032)
v2: Removing PWL point (0.00022808,0.0024)
v2: Removing PWL point (0.0002282,0.0032)
v2: Removing PWL point (0.0002284,0.0024)
v2: Removing PWL point (0.00022964,0.0008)
v2: Removing PWL point (0.00022988,0.0024)
v2: Removing PWL point (0.00023044,0.0024)
v2: Removing PWL point (0.00023112,0.0032)
v2: Removing PWL point (0.00023168,0.0032)
v2: Removing PWL point (0.000232,0.0024)
v2: Removing PWL point (0.00023232,0.0032)
v2: Removing PWL point (0.00023252,0.0024)
v2: Removing PWL point (0.00023292,0.0032)
v2: Removing PWL point (0.00023336,0.0032)
v2: Removing PWL point (0.0002336,0.0032)
v2: Removing PWL point (0.00023416,0.0024)
v2: Removing PWL point (0.0002344,0.0024)
v2: Removing PWL point (0.00023472,0.0024)
v2: Removing PWL point (0.00023516,0.0024)
v2: Removing PWL point (0.000236,0.0024)
v2: Removing PWL point (0.00023656,0.0024)
v2: Removing PWL point (0.0002368,0.0016)
v2: Removing PWL point (0.00023692,0.0024)
v2: Removing PWL point (0.00023732,0.0024)
v2: Removing PWL point (0.00023792,0.0024)
v2: Removing PWL point (0.00023904,0.004)
v2: Removing PWL point (0.00023956,0.004)
v2: Removing PWL point (0.00024008,0.0048)
v2: Removing PWL point (0.00024028,0.004)
v2: Removing PWL point (0.0002414,0.004)
v2: Removing PWL point (0.00024184,0.0024)
v2: Removing PWL point (0.00024256,0.0016)
v2: Removing PWL point (0.00024312,0.0024)
v2: Removing PWL point (0.00024356,0.0032)
v2: Removing PWL point (0.00024368,0.0024)
v2: Removing PWL point (0.00024416,0.004)
v2: Removing PWL point (0.00024452,0.004)
v2: Removing PWL point (0.00024476,0.004)
v2: Removing PWL point (0.00024504,0.004)
v2: Removing PWL point (0.00024544,0.0048)
v2: Removing PWL point (0.00024572,0.004)
v2: Removing PWL point (0.000246,0.004)
v2: Removing PWL point (0.00024616,0.0032)
v2: Removing PWL point (0.00024664,0.0024)
v2: Removing PWL point (0.00024776,0.0024)
v2: Removing PWL point (0.00024808,0.0008)
v2: Removing PWL point (0.00024892,0.0032)
v2: Removing PWL point (0.00024992,0.0024)
v2: Removing PWL point (0.00025072,0.0024)
v2: Removing PWL point (0.00025112,0.004)
v2: Removing PWL point (0.00025168,0.0072)
v2: Removing PWL point (0.000252,0.0088)
v2: Removing PWL point (0.00025228,0.0088)
v2: Removing PWL point (0.00025284,0.004)
v2: Removing PWL point (0.00025356,-0.0032)
v2: Removing PWL point (0.00025416,-0.004)
v2: Removing PWL point (0.00025456,-0.0008)
v2: Removing PWL point (0.000255,0.0032)
v2: Removing PWL point (0.00025512,0.004)
v2: Removing PWL point (0.0002558,0.0056)
v2: Removing PWL point (0.00025596,0.0056)
v2: Removing PWL point (0.00025616,0.0056)
v2: Removing PWL point (0.00025628,0.0064)
v2: Removing PWL point (0.00025688,0.0072)
v2: Removing PWL point (0.00025768,0.0064)
v2: Removing PWL point (0.00025888,0.0048)
v2: Removing PWL point (0.00026044,0.0024)
v2: Removing PWL point (0.00026076,-0.0008)
v2: Removing PWL point (0.00026112,0.0008)
v2: Removing PWL point (0.00026144,0.0008)
v2: Removing PWL point (0.0002616,0.0008)
v2: Removing PWL point (0.00026184,0.0016)
v2: Removing PWL point (0.00026208,0.0024)
v2: Removing PWL point (0.0002624,0.0008)
v2: Removing PWL point (0.00026348,0.004)
v2: Removing PWL point (0.00026364,0.004)
v2: Removing PWL point (0.00026436,0.004)
v2: Removing PWL point (0.00026504,0.0032)
v2: Removing PWL point (0.0002652,0.0032)
v2: Removing PWL point (0.00026564,0.0024)
v2: Removing PWL point (0.00026584,0.0024)
v2: Removing PWL point (0.00026692,0.0024)
v2: Removing PWL point (0.00026844,0.0024)
v2: Removing PWL point (0.00026896,0.004)
v2: Removing PWL point (0.00026912,0.004)
v2: Removing PWL point (0.00026948,0.0056)
v2: Removing PWL point (0.00027,0.004)
v2: Removing PWL point (0.00027024,0.004)
v2: Removing PWL point (0.00027068,0.004)
v2: Removing PWL point (0.00027124,0.004)
v2: Removing PWL point (0.00027172,0.004)
v2: Removing PWL point (0.00027208,0.0024)
v2: Removing PWL point (0.0002722,0.004)
v2: Removing PWL point (0.000273,0.0024)
v2: Removing PWL point (0.0002732,0.0008)
v2: Removing PWL point (0.00027364,0.0024)
v2: Removing PWL point (0.0002738,0.0024)
v2: Removing PWL point (0.00027404,0.0024)
v2: Removing PWL point (0.00027444,0.0032)
v2: Removing PWL point (0.00027512,0.0008)
v2: Removing PWL point (0.00027528,0.0024)
v2: Removing PWL point (0.0002758,0.0008)
v2: Removing PWL point (0.00027648,0.0024)
v2: Removing PWL point (0.00027692,0.0024)
v2: Removing PWL point (0.00027728,0.0024)
v2: Removing PWL point (0.0002776,0.0024)
v2: Removing PWL point (0.00027784,0.0016)
v2: Removing PWL point (0.00027812,0.0016)
v2: Removing PWL point (0.00027864,0.0024)
v2: Removing PWL point (0.00027908,0.0024)
v2: Removing PWL point (0.00027952,0.0032)
v2: Removing PWL point (0.00028248,0.0032)
v2: Removing PWL point (0.00028268,0.0024)
v2: Removing PWL point (0.00028296,0.0024)
v2: Removing PWL point (0.00028316,0.0024)
v2: Removing PWL point (0.0002834,0.0024)
v2: Removing PWL point (0.00028384,0.0024)
v2: Removing PWL point (0.0002842,0.0032)
v2: Removing PWL point (0.00028456,0.0024)
v2: Removing PWL point (0.00028472,0.0032)
v2: Removing PWL point (0.00028492,0.0032)
v2: Removing PWL point (0.00028508,0.004)
v2: Removing PWL point (0.00028532,0.004)
v2: Removing PWL point (0.0002856,0.0032)
v2: Removing PWL point (0.00028576,0.004)
v2: Removing PWL point (0.000286,0.004)
v2: Removing PWL point (0.00028624,0.004)
v2: Removing PWL point (0.00028648,0.004)
v2: Removing PWL point (0.00028676,0.004)
v2: Removing PWL point (0.0002872,0.0024)
v2: Removing PWL point (0.000288,0.0024)
v2: Removing PWL point (0.00028832,0.0024)
v2: Removing PWL point (0.00028852,0.0024)
v2: Removing PWL point (0.00028884,0.0032)
v2: Removing PWL point (0.000289,0.0024)
v2: Removing PWL point (0.00028928,0.0032)
v2: Removing PWL point (0.00028952,0.0024)
v2: Removing PWL point (0.00029,0.0032)
v2: Removing PWL point (0.00029064,0.0024)
v2: Removing PWL point (0.00029092,0.0024)
v2: Removing PWL point (0.00029108,0.0024)
v2: Removing PWL point (0.00029352,0.0024)
v2: Removing PWL point (0.0002938,0.0032)
v2: Removing PWL point (0.00029424,0.004)
v2: Removing PWL point (0.0002946,0.004)
v2: Removing PWL point (0.0002952,0.004)
v2: Removing PWL point (0.00029556,0.004)
v2: Removing PWL point (0.00029608,0.004)
v2: Removing PWL point (0.00029632,0.0024)
v2: Removing PWL point (0.00029664,0.0032)
v2: Removing PWL point (0.00029708,0.0024)
v2: Removing PWL point (0.00029988,0.0008)
v2: Removing PWL point (0.00030012,0.0008)
v2: Removing PWL point (0.00030028,0.0008)
v2: Removing PWL point (0.00030068,0.0008)
v2: Removing PWL point (0.00030116,0.0024)
v2: Removing PWL point (0.00030196,0.0024)
v2: Removing PWL point (0.0003028,0.0024)
v2: Removing PWL point (0.00030324,0.0024)
v2: Removing PWL point (0.00030508,0.0024)
v2: Removing PWL point (0.0003054,0.0032)
v2: Removing PWL point (0.00030624,0.0024)
v2: Removing PWL point (0.0003066,0.004)
v2: Removing PWL point (0.00030728,0.0024)
v2: Removing PWL point (0.00030772,0.0016)
v2: Removing PWL point (0.00030784,0.0024)
v2: Removing PWL point (0.0003082,0.0024)
v2: Removing PWL point (0.0003096,0.0024)
v2: Removing PWL point (0.00030976,0.0024)
v2: Removing PWL point (0.0003108,0.0024)
v2: Removing PWL point (0.000312,0.0032)
v2: Removing PWL point (0.00031232,0.0024)
v2: Removing PWL point (0.00031248,0.0032)
v2: Removing PWL point (0.0003126,0.0024)
v2: Removing PWL point (0.000313,0.0032)
v2: Removing PWL point (0.00031312,0.0024)
v2: Removing PWL point (0.00031332,0.0024)
v2: Removing PWL point (0.00031352,0.0024)
v2: Removing PWL point (0.00031464,0.0024)
v2: Removing PWL point (0.0003152,0.0032)
v2: Removing PWL point (0.00031556,0.0024)
v2: Removing PWL point (0.0003158,0.0032)
v2: Removing PWL point (0.00031656,0.0032)
v2: Removing PWL point (0.00031748,0.004)
v2: Removing PWL point (0.00031764,0.0032)
v2: Removing PWL point (0.00031788,0.0032)
v2: Removing PWL point (0.00031808,0.0032)
v2: Removing PWL point (0.00032,0.0008)
v2: Removing PWL point (0.00032068,0.0016)
v2: Removing PWL point (0.0003208,0.0008)
v2: Removing PWL point (0.00032152,0.0024)
v2: Removing PWL point (0.00032284,0.0024)
v2: Removing PWL point (0.00032392,0.0024)
v2: Removing PWL point (0.00032436,0.0024)
v2: Removing PWL point (0.00032488,0.0008)
v2: Removing PWL point (0.00032516,0.0008)
v2: Removing PWL point (0.00032568,0.0008)
v2: Removing PWL point (0.00032648,0.0016)
v2: Removing PWL point (0.00032676,0.0024)
v2: Removing PWL point (0.00032696,0.0024)
v2: Removing PWL point (0.00032708,0.0032)
v3: Removing PWL point (-0.00068,-0.0128)
v3: Removing PWL point (-0.000399,-0.01104)
v3: Removing PWL point (-0.000378,-0.01056)
v3: Removing PWL point (-0.000163,-0.00384)
v3: Removing PWL point (-9.68e-05,-0.008)
v3: Removing PWL point (-9.24e-05,-0.008)
v3: Removing PWL point (-8.6e-05,-0.0064)
v3: Removing PWL point (-8.02e-05,-0.0064)
v3: Removing PWL point (-7.9e-05,-0.0032)
v3: Removing PWL point (-7.48e-05,-0.0056)
v3: Removing PWL point (-7.4e-05,-0.0056)
v3: Removing PWL point (-7.22e-05,-0.0048)
v3: Removing PWL point (-6.74e-05,-0.0032)
v3: Removing PWL point (-6.16e-05,-0.0032)
v3: Removing PWL point (-5.94e-05,-0.0032)
v3: Removing PWL point (-5.78e-05,-0.0016)
v3: Removing PWL point (-5.5e-05,-0.0016)
v3: Removing PWL point (-5.34e-05,-0.0008)
v3: Removing PWL point (-5.1e-05,-0.0008)
v3: Removing PWL point (-4.76e-05,0.0008)
v3: Removing PWL point (-4.26e-05,0.0008)
v3: Removing PWL point (-4.1e-05,0.0024)
v3: Removing PWL point (-3.54e-05,0.0024)
v3: Removing PWL point (-3.42e-05,0.0024)
v3: Removing PWL point (-3.2e-05,0.0032)
v3: Removing PWL point (-3.12e-05,0.0024)
v3: Removing PWL point (-2.78e-05,0.004)
v3: Removing PWL point (-2.04e-05,0.0056)
v3: Removing PWL point (-1.7e-05,0.0064)
v3: Removing PWL point (-1.28e-05,0.0064)
v3: Removing PWL point (-1.16e-05,0.0064)
v3: Removing PWL point (-1.04e-05,0.0072)
v3: Removing PWL point (-7.2e-06,0.0072)
v3: Removing PWL point (-3.6e-06,0.0088)
v3: Removing PWL point (2e-07,0.0096)
v3: Removing PWL point (1.6e-06,0.0072)
v3: Removing PWL point (7.2e-06,0.0088)
v3: Removing PWL point (8.6e-06,0.0088)
v3: Removing PWL point (1.02e-05,0.0096)
v3: Removing PWL point (1.18e-05,0.0088)
v3: Removing PWL point (1.24e-05,0.0096)
v3: Removing PWL point (1.36e-05,0.0088)
v3: Removing PWL point (1.44e-05,0.0096)
v3: Removing PWL point (1.88e-05,0.0088)
v3: Removing PWL point (2.26e-05,0.0088)
v3: Removing PWL point (2.42e-05,0.0088)
v3: Removing PWL point (2.56e-05,0.0072)
v3: Removing PWL point (3.26e-05,0.0088)
v3: Removing PWL point (3.4e-05,0.0072)
v3: Removing PWL point (3.62e-05,0.0072)
v3: Removing PWL point (3.78e-05,0.0072)
v3: Removing PWL point (4.16e-05,0.0088)
v3: Removing PWL point (4.94e-05,0.0088)
v3: Removing PWL point (5.4e-05,0.0064)
v3: Removing PWL point (5.52e-05,0.0072)
v3: Removing PWL point (5.8e-05,0.0048)
v3: Removing PWL point (5.88e-05,0.0056)
v3: Removing PWL point (6.02e-05,0.004)
v3: Removing PWL point (6.48e-05,0.004)
v3: Removing PWL point (6.76e-05,0.004)
v3: Removing PWL point (6.86e-05,0.004)
v3: Removing PWL point (7.42e-05,0.0032)
v3: Removing PWL point (7.54e-05,0.0024)
v3: Removing PWL point (7.84e-05,0.0032)
v3: Removing PWL point (8.52e-05,0.0016)
v3: Removing PWL point (8.9e-05,-0.0032)
v3: Removing PWL point (9.08e-05,-0.0016)
v3: Removing PWL point (9.16e-05,-0.0016)
v3: Removing PWL point (9.28e-05,-0.0032)
v3: Removing PWL point (0.000259,0.0048)
v4: Removing PWL point (-0.000482,0.01376)
v4: Removing PWL point (-0.000277,0.0128)
v4: Removing PWL point (-0.000194,0.00688)
v4: Removing PWL point (-9.98e-05,-0.0048)
v4: Removing PWL point (-9.84e-05,-0.0056)
v4: Removing PWL point (-9.78e-05,-0.0048)
v4: Removing PWL point (-9.64e-05,-0.0048)
v4: Removing PWL point (-9.48e-05,-0.0048)
v4: Removing PWL point (-8.72e-05,-0.0024)
v4: Removing PWL point (-8.32e-05,-0.004)
v4: Removing PWL point (-7.86e-05,-0.0032)
v4: Removing PWL point (-7.32e-05,-0.0008)
v4: Removing PWL point (-7.22e-05,0.0008)
v4: Removing PWL point (-7.14e-05,0.0008)
v4: Removing PWL point (-6.74e-05,-0.0008)
v4: Removing PWL point (-6.42e-05,0.0024)
v4: Removing PWL point (-6.26e-05,0.0008)
v4: Removing PWL point (-5.84e-05,0.0016)
v4: Removing PWL point (-5.74e-05,0.0024)
v4: Removing PWL point (-5.26e-05,0.0032)
v4: Removing PWL point (-4.36e-05,0.0056)
v4: Removing PWL point (-4e-05,0.0064)
v4: Removing PWL point (-3.56e-05,0.0064)
v4: Removing PWL point (-3.24e-05,0.0072)
v4: Removing PWL point (-2.76e-05,0.0088)
v4: Removing PWL point (-2.64e-05,0.0088)
v4: Removing PWL point (-2.46e-05,0.0096)
v4: Removing PWL point (-2.38e-05,0.0096)
v4: Removing PWL point (-1.86e-05,0.0088)
v4: Removing PWL point (-1.34e-05,0.012)
v4: Removing PWL point (-1.1e-05,0.012)
v4: Removing PWL point (-1.04e-05,0.0128)
v4: Removing PWL point (-6.8e-06,0.0136)
v4: Removing PWL point (-4.4e-06,0.012)
v4: Removing PWL point (-3e-06,0.012)
v4: Removing PWL point (-1.2e-06,0.0128)
v4: Removing PWL point (-2e-07,0.0128)
v4: Removing PWL point (1.2e-06,0.012)
v4: Removing PWL point (1.18e-05,0.0136)
v4: Removing PWL point (1.64e-05,0.0152)
v4: Removing PWL point (1.9e-05,0.0136)
v4: Removing PWL point (2.22e-05,0.0144)
v4: Removing PWL point (2.72e-05,0.0136)
v4: Removing PWL point (2.8e-05,0.0136)
v4: Removing PWL point (3.12e-05,0.0128)
v4: Removing PWL point (3.2e-05,0.0136)
v4: Removing PWL point (3.36e-05,0.0136)
v4: Removing PWL point (3.42e-05,0.0128)
v4: Removing PWL point (3.52e-05,0.0136)
v4: Removing PWL point (3.76e-05,0.0136)
v4: Removing PWL point (3.9e-05,0.0136)
v4: Removing PWL point (4.04e-05,0.0136)
v4: Removing PWL point (4.2e-05,0.0136)
v4: Removing PWL point (4.64e-05,0.0128)
v4: Removing PWL point (4.94e-05,0.0128)
v4: Removing PWL point (5.08e-05,0.012)
v4: Removing PWL point (5.24e-05,0.0112)
v4: Removing PWL point (5.8e-05,0.0128)
v4: Removing PWL point (6.02e-05,0.0096)
v4: Removing PWL point (6.28e-05,0.0088)
v4: Removing PWL point (7.32e-05,0.0088)
v4: Removing PWL point (7.52e-05,0.0072)
v4: Removing PWL point (7.66e-05,0.0072)
v4: Removing PWL point (7.96e-05,0.0072)
v4: Removing PWL point (8.2e-05,0.0072)
v4: Removing PWL point (9.06e-05,0.004)
v4: Removing PWL point (9.16e-05,0.004)
v4: Removing PWL point (9.36e-05,0.0032)
v4: Removing PWL point (9.94e-05,0.0024)
v4: Removing PWL point (0.000136,-0.00464)
v4: Removing PWL point (0.000497,0.00464)
v4: Removing PWL point (0.00059,0.01504)
v5: Removing PWL point (-0.00994,-0.0016)
v5: Removing PWL point (-0.00986,0.0008)
v5: Removing PWL point (-0.00976,0.0008)
v5: Removing PWL point (-0.0097,0.0016)
v5: Removing PWL point (-0.00856,0.0032)
v5: Removing PWL point (-0.00758,0.0008)
v5: Removing PWL point (-0.0069,0.0008)
v5: Removing PWL point (-0.00636,0.0008)
v5: Removing PWL point (-0.00612,0.0008)
v5: Removing PWL point (-0.006,0.0008)
v5: Removing PWL point (-0.00524,-0.0008)
v5: Removing PWL point (-0.00514,-0.0008)
v5: Removing PWL point (-0.00462,-0.0016)
v5: Removing PWL point (-0.00426,0.0016)
v5: Removing PWL point (-0.00244,-0.0016)
v5: Removing PWL point (-0.0022,0.0032)
v5: Removing PWL point (-0.00152,0.0016)
v5: Removing PWL point (-0.00108,0.0024)
v5: Removing PWL point (-0.00064,0.0008)
v5: Removing PWL point (-0.00034,0.0008)
v5: Removing PWL point (0.00078,0.0024)
v5: Removing PWL point (0.00152,0.0008)
v5: Removing PWL point (0.00162,-0.0016)
v5: Removing PWL point (0.00266,0.0008)
v5: Removing PWL point (0.00284,-0.0008)
v5: Removing PWL point (0.00322,-0.0016)
v5: Removing PWL point (0.00328,-0.0008)
v5: Removing PWL point (0.00352,0.0032)
v5: Removing PWL point (0.00388,-0.0016)
v5: Removing PWL point (0.00412,0.0024)
v5: Removing PWL point (0.00472,-0.0016)
v5: Removing PWL point (0.00516,0.0024)
v5: Removing PWL point (0.00548,-0.0016)
v5: Removing PWL point (0.00558,0.0008)
v5: Removing PWL point (0.00742,-0.0008)
v5: Removing PWL point (0.00822,0.0016)
v5: Removing PWL point (0.0085,0.0024)
v5: Removing PWL point (0.00872,0.0024)
v6: Removing PWL point (-0.00934,0.0048)
v6: Removing PWL point (-0.00898,0.0056)
v6: Removing PWL point (-0.00862,-0.0008)
v6: Removing PWL point (-0.00856,0.0008)
v6: Removing PWL point (-0.00762,0.0024)
v6: Removing PWL point (-0.00712,0.0056)
v6: Removing PWL point (-0.0065,0.0064)
v6: Removing PWL point (-0.00584,0.004)
v6: Removing PWL point (-0.00576,0.004)
v6: Removing PWL point (-0.00562,0.0024)
v6: Removing PWL point (-0.00498,0.004)
v6: Removing PWL point (-0.00476,0.004)
v6: Removing PWL point (-0.00424,0.0024)
v6: Removing PWL point (-0.0037,0.0008)
v6: Removing PWL point (-0.00334,0.0032)
v6: Removing PWL point (-0.0031,0.004)
v6: Removing PWL point (-0.00294,0.0024)
v6: Removing PWL point (-0.00252,0.004)
v6: Removing PWL point (-0.0023,0.004)
v6: Removing PWL point (-0.00222,0.004)
v6: Removing PWL point (-0.00076,0.0032)
WARNING: Less than two connections to node 1.  This node is used by v1.
WARNING: Less than two connections to node 2.  This node is used by v2.
WARNING: Less than two connections to node 3.  This node is used by v3.
WARNING: Less than two connections to node 4.  This node is used by v4.
WARNING: Less than two connections to node 5.  This node is used by v5.
WARNING: Less than two connections to node 6.  This node is used by v6.
Direct Newton iteration for .op point succeeded.

Date: Thu Dec 19 15:32:56 2024
Total elapsed time: 0.242 seconds.

tnom = 27
temp = 27
method = modified trap
totiter = 85727
traniter = 85724
tranpoints = 42863
accept = 42863
rejected = 0
matrix size = 12
fillins = 0
solver = Normal
Avg thread counts: 1.0/1.1/1.1/1.0
Matrix Compiler1: 176 bytes object code size  0.1/0.1/[0.1]
Matrix Compiler2: 472 bytes object code size  0.1/0.1/[0.0]

